@!IC,SBASE,REV,XFRRAT,NXFRAT,BASFRQ
0,  100.00, 35,     0,     1, 60.00     / PSS(R)E-35.1    MON, APR 27 2020  18:10
IEEE 25 BUS NETWORK
N-1-1 ANALYSIS DEMONSTRATION
GENERAL, THRSHZ=0.0001, PQBRAK=0.7, BLOWUP=5.0, MaxIsolLvls=4, CAMaxReptSln=20, ChkDupCntLbl=0
GAUSS, ITMX=100, ACCP=1.6, ACCQ=1.6, ACCM=1.0, TOL=0.0001
NEWTON, ITMXN=20, ACCN=1.0, TOLN=0.1, VCTOLQ=0.1, VCTOLV=0.00001, DVLIM=0.99, NDVFCT=0.99
ADJUST, ADJTHR=0.005, ACCTAP=1.0, TAPLIM=0.05, SWVBND=100.0, MXTPSS=99, MXSWIM=10
TYSL, ITMXTY=20, ACCTY=1.0, TOLTY=0.00001
SOLVER, FDNS, ACTAPS=0, AREAIN=0, PHSHFT=0, DCTAPS=1, SWSHNT=1, FLATST=0, VARLIM=99, NONDIV=0
RATING, 1, "RATE1 ", "RATING SET 1                    "
RATING, 2, "RATE2 ", "RATING SET 2                    "
RATING, 3, "RATE3 ", "RATING SET 3                    "
RATING, 4, "RATE4 ", "RATING SET 4                    "
RATING, 5, "RATE5 ", "RATING SET 5                    "
RATING, 6, "RATE6 ", "RATING SET 6                    "
RATING, 7, "RATE7 ", "RATING SET 7                    "
RATING, 8, "RATE8 ", "RATING SET 8                    "
RATING, 9, "RATE9 ", "RATING SET 9                    "
RATING,10, "RATE10", "RATING SET 10                   "
RATING,11, "RATE11", "RATING SET 11                   "
RATING,12, "RATE12", "RATING SET 12                   "
0 / END OF SYSTEM-WIDE DATA, BEGIN BUS DATA
@!   I,'NAME        ', BASKV, IDE,AREA,ZONE,OWNER, VM,        VA,    NVHI,   NVLO,   EVHI,   EVLO
10001, 'NEAH BAY 1', 138.00, 1, 1, 1, 1, 1.0116, -39.8436, 1.10, 0.90, 1.10, 0.90
10002, 'FORKS 1', 138.00, 1, 1, 1, 1, 1.0170, -37.0433, 1.10, 0.90, 1.10, 0.90
10003, 'OCEAN SHORES 1', 138.00, 1, 1, 1, 1, 1.0314, -34.0391, 1.10, 0.90, 1.10, 0.90
10004, 'WESTPORT 1', 138.00, 1, 1, 1, 1, 1.0325, -33.9262, 1.10, 0.90, 1.10, 0.90
10005, 'WESTPORT 2', 138.00, 1, 1, 1, 1, 1.0324, -33.9325, 1.10, 0.90, 1.10, 0.90
10006, 'LONG BEACH 1 1', 138.00, 1, 1, 1, 1, 1.0256, -35.8166, 1.10, 0.90, 1.10, 0.90
10007, 'LONG BEACH 1 2', 138.00, 1, 1, 1, 1, 1.0256, -35.8085, 1.10, 0.90, 1.10, 0.90
10008, 'OCEAN PARK 1', 138.00, 1, 1, 1, 1, 1.0243, -34.7419, 1.10, 0.90, 1.10, 0.90
10009, 'OCEAN PARK 2', 138.00, 1, 1, 1, 1, 1.0242, -34.7512, 1.10, 0.90, 1.10, 0.90
10010, 'HOQUIAM 1', 138.00, 1, 1, 1, 1, 1.0230, -34.8458, 1.10, 0.90, 1.10, 0.90
10011, 'PORT ANGELES 1 1', 138.00, 1, 1, 1, 1, 1.0074, -40.6036, 1.10, 0.90, 1.10, 0.90
10012, 'ABERDEEN 1 1', 345.00, 1, 1, 1, 1, 1.0354, -32.2652, 1.10, 0.90, 1.10, 0.90
10013, 'ABERDEEN 1 2', 138.00, 1, 1, 1, 1, 1.0282, -34.3271, 1.10, 0.90, 1.10, 0.90
10014, 'MONTESANO 1', 138.00, 1, 1, 1, 1, 1.0257, -34.6412, 1.10, 0.90, 1.10, 0.90
10015, 'MONTESANO 2', 138.00, 1, 1, 1, 1, 1.0255, -34.6543, 1.10, 0.90, 1.10, 0.90
10016, 'RAYMOND 1', 138.00, 1, 1, 1, 1, 1.0266, -32.2840, 1.10, 0.90, 1.10, 0.90
10017, 'RAYMOND 2', 138.00, 1, 1, 1, 1, 1.0265, -32.2993, 1.10, 0.90, 1.10, 0.90
10018, 'ELMA 1 1', 138.00, 1, 1, 1, 1, 1.0321, -35.3701, 1.10, 0.90, 1.10, 0.90
10019, 'PORT ANGELES 2 1', 345.00, 1, 1, 1, 1, 1.0386, -36.5408, 1.10, 0.90, 1.10, 0.90
10020, 'PORT ANGELES 2 2', 138.00, 1, 1, 1, 1, 1.0163, -39.0746, 1.10, 0.90, 1.10, 0.90
10021, 'CATHLAMET 1', 138.00, 1, 1, 1, 1, 1.0271, -31.8992, 1.10, 0.90, 1.10, 0.90
10022, 'SHELTON 1 1', 138.00, 1, 1, 1, 1, 1.0405, -35.6919, 1.10, 0.90, 1.10, 0.90
10023, 'SHELTON 2 1', 345.00, 1, 1, 1, 1, 1.0324, -33.2325, 1.10, 0.90, 1.10, 0.90
10024, 'SHELTON 2 2', 138.00, 1, 1, 1, 1, 1.0440, -35.6130, 1.10, 0.90, 1.10, 0.90
10025, 'ROCHESTER 1', 138.00, 1, 1, 1, 1, 1.0333, -32.7205, 1.10, 0.90, 1.10, 0.90
10026, 'FRIDAY HARBOR 1', 138.00, 1, 1, 1, 1, 1.0117, -41.0729, 1.10, 0.90, 1.10, 0.90
10027, 'SEQUIM 1 1', 138.00, 1, 1, 1, 1, 1.0039, -41.0724, 1.10, 0.90, 1.10, 0.90
10028, 'SEQUIM 1 2', 138.00, 1, 1, 1, 1, 1.0037, -41.0894, 1.10, 0.90, 1.10, 0.90
10029, 'SEQUIM 2 1', 138.00, 1, 1, 1, 1, 1.0089, -40.4556, 1.10, 0.90, 1.10, 0.90
10030, 'OLYMPIA 1 1', 138.00, 1, 1, 1, 1, 1.0372, -35.0523, 1.10, 0.90, 1.10, 0.90
10031, 'OLYMPIA 1 2', 138.00, 1, 1, 1, 1, 1.0371, -35.0737, 1.10, 0.90, 1.10, 0.90
10032, 'OLYMPIA 2 1', 138.00, 1, 1, 1, 1, 1.0308, -36.1171, 1.10, 0.90, 1.10, 0.90
10033, 'LONGVIEW 1 1', 138.00, 1, 1, 1, 1, 1.0168, -32.5579, 1.10, 0.90, 1.10, 0.90
10034, 'LONGVIEW 2 1', 138.00, 1, 1, 1, 1, 1.0157, -32.4260, 1.10, 0.90, 1.10, 0.90
10035, 'LONGVIEW 2 2', 138.00, 1, 1, 1, 1, 1.0151, -32.4548, 1.10, 0.90, 1.10, 0.90
10036, 'LONGVIEW 2 3', 138.00, 1, 1, 1, 1, 1.0163, -32.3930, 1.10, 0.90, 1.10, 0.90
10037, 'CHEHALIS 1 1', 138.00, 1, 1, 1, 1, 1.0338, -32.0931, 1.10, 0.90, 1.10, 0.90
10038, 'OLYMPIA 3 1', 138.00, 1, 1, 1, 1, 1.0357, -36.4002, 1.10, 0.90, 1.10, 0.90
10039, 'OLYMPIA 3 2', 138.00, 1, 1, 1, 1, 1.0359, -36.3809, 1.10, 0.90, 1.10, 0.90
10040, 'OLYMPIA 4 1', 138.00, 1, 1, 1, 1, 1.0302, -37.0841, 1.10, 0.90, 1.10, 0.90
10041, 'WINLOCK 1', 138.00, 1, 1, 1, 1, 1.0323, -31.3423, 1.10, 0.90, 1.10, 0.90
10042, 'CENTRALIA 1 1', 138.00, 1, 1, 1, 1, 1.0329, -33.1901, 1.10, 0.90, 1.10, 0.90
10043, 'BELFAIR 1', 138.00, 1, 1, 1, 1, 1.0218, -38.8110, 1.10, 0.90, 1.10, 0.90
10044, 'BELFAIR 2', 138.00, 1, 1, 1, 1, 1.0217, -38.8348, 1.10, 0.90, 1.10, 0.90
10045, 'CASTLE ROCK 1 1', 138.00, 1, 1, 1, 1, 1.0228, -32.1513, 1.10, 0.90, 1.10, 0.90
10046, 'OLYMPIA 5 1', 138.00, 1, 1, 1, 1, 1.0223, -34.5137, 1.10, 0.90, 1.10, 0.90
10047, 'OLYMPIA 5 2', 138.00, 1, 1, 1, 1, 1.0221, -34.5383, 1.10, 0.90, 1.10, 0.90
10048, 'OLYMPIA 6 1', 138.00, 1, 1, 1, 1, 1.0226, -34.4879, 1.10, 0.90, 1.10, 0.90
10049, 'OLYMPIA 6 2', 138.00, 1, 1, 1, 1, 1.0228, -34.4628, 1.10, 0.90, 1.10, 0.90
10050, 'OLYMPIA 6 3', 138.00, 1, 1, 1, 1, 1.0226, -34.4879, 1.10, 0.90, 1.10, 0.90
10051, 'EASTSOUND 1', 138.00, 1, 1, 1, 1, 1.0136, -40.8150, 1.10, 0.90, 1.10, 0.90
10052, 'EASTSOUND 2', 138.00, 1, 1, 1, 1, 1.0136, -40.8260, 1.10, 0.90, 1.10, 0.90
10053, 'OLYMPIA 7 1', 138.00, 1, 1, 1, 1, 1.0269, -33.6816, 1.10, 0.90, 1.10, 0.90
10054, 'PORT TOWNSEND 1', 138.00, 1, 1, 1, 1, 1.0047, -41.0586, 1.10, 0.90, 1.10, 0.90
10055, 'TENINO 1', 138.00, 1, 1, 1, 1, 1.0267, -34.7469, 1.10, 0.90, 1.10, 0.90
10056, 'TENINO 2', 138.00, 1, 1, 1, 1, 1.0268, -34.7381, 1.10, 0.90, 1.10, 0.90
10057, 'LACEY 1 1', 345.00, 1, 1, 1, 1, 1.0310, -32.3013, 1.10, 0.90, 1.10, 0.90
10058, 'LACEY 1 2', 138.00, 1, 1, 1, 1, 1.0223, -34.6708, 1.10, 0.90, 1.10, 0.90
10059, 'LACEY 1 3', 345.00, 1, 1, 1, 1, 1.0317, -32.2053, 1.10, 0.90, 1.10, 0.90
10060, 'LACEY 2 1', 138.00, 1, 1, 1, 1, 1.0201, -34.7556, 1.10, 0.90, 1.10, 0.90
10061, 'OLYMPIA 8 1', 138.00, 1, 1, 1, 1, 1.0261, -38.0730, 1.10, 0.90, 1.10, 0.90
10062, 'BREMERTON 1 1', 138.00, 1, 1, 1, 1, 1.0206, -39.8698, 1.10, 0.90, 1.10, 0.90
10063, 'BREMERTON 1 2', 138.00, 1, 1, 1, 1, 1.0208, -39.8507, 1.10, 0.90, 1.10, 0.90
10064, 'BREMERTON 1 3', 138.00, 1, 1, 1, 1, 1.0204, -39.8910, 1.10, 0.90, 1.10, 0.90
10065, 'BREMERTON 2 1', 138.00, 1, 1, 1, 1, 1.0198, -39.7030, 1.10, 0.90, 1.10, 0.90
10066, 'BREMERTON 2 2', 13.80, 1, 1, 1, 1, 1.0198, -39.7030, 1.10, 0.90, 1.10, 0.90
10067, 'BREMERTON 2 3', 13.80, 1, 1, 1, 1, 1.0198, -39.7030, 1.10, 0.90, 1.10, 0.90
10068, 'BREMERTON 2 4', 1.00, 1, 1, 1, 1, 1.0198, -39.7030, 1.10, 0.90, 1.10, 0.90
10069, 'KELSO 1', 138.00, 1, 1, 1, 1, 1.0128, -33.0151, 1.10, 0.90, 1.10, 0.90
10070, 'LAKEBAY 1 1', 138.00, 1, 1, 1, 1, 1.0241, -39.0192, 1.10, 0.90, 1.10, 0.90
10071, 'OLYMPIA 9 1', 138.00, 1, 1, 1, 1, 1.0258, -35.0094, 1.10, 0.90, 1.10, 0.90
10072, 'OLYMPIA 10 1', 138.00, 1, 1, 1, 1, 1.0201, -35.0995, 1.10, 0.90, 1.10, 0.90
10073, 'OLYMPIA 10 2', 138.00, 1, 1, 1, 1, 1.0197, -35.1202, 1.10, 0.90, 1.10, 0.90
10074, 'KALAMA 1', 138.00, 1, 1, 1, 1, 1.0143, -33.3662, 1.10, 0.90, 1.10, 0.90
10075, 'KALAMA 2', 138.00, 1, 1, 1, 1, 1.0142, -33.3746, 1.10, 0.90, 1.10, 0.90
10076, 'GIG HARBOR 1 1', 138.00, 1, 1, 1, 1, 1.0245, -38.1745, 1.10, 0.90, 1.10, 0.90
10077, 'VANCOUVER 1 1', 138.00, 1, 1, 1, 1, 1.0263, -34.8600, 1.10, 0.90, 1.10, 0.90
10078, 'SILVERDALE 1 1', 345.00, 1, 1, 1, 1, 1.0324, -34.3046, 1.10, 0.90, 1.10, 0.90
10079, 'SILVERDALE 1 2', 138.00, 1, 1, 1, 1, 1.0224, -38.1946, 1.10, 0.90, 1.10, 0.90
10080, 'SILVERDALE 1 3', 24.00, 1, 1, 1, 1, 1.0165, -43.7587, 1.10, 0.90, 1.10, 0.90
10081, 'SILVERDALE 1 4', 1.00, 1, 1, 1, 1, 1.0165, -43.7587, 1.10, 0.90, 1.10, 0.90
10082, 'SILVERDALE 2 1', 138.00, 1, 1, 1, 1, 1.0202, -39.0620, 1.10, 0.90, 1.10, 0.90
10083, 'SILVERDALE 2 2', 138.00, 1, 1, 1, 1, 1.0200, -39.0737, 1.10, 0.90, 1.10, 0.90
10084, 'BLAINE 1 1', 138.00, 1, 1, 1, 1, 1.0299, -38.1475, 1.10, 0.90, 1.10, 0.90
10085, 'BLAINE 1 2', 138.00, 1, 1, 1, 1, 1.0298, -38.1728, 1.10, 0.90, 1.10, 0.90
10086, 'BLAINE 1 3', 138.00, 1, 1, 1, 1, 1.0301, -38.1260, 1.10, 0.90, 1.10, 0.90
10087, 'PORT LUDLOW 1', 138.00, 1, 1, 1, 1, 1.0160, -39.8395, 1.10, 0.90, 1.10, 0.90
10088, 'PORT ORCHARD 1 1', 138.00, 1, 1, 1, 1, 1.0294, -39.3741, 1.10, 0.90, 1.10, 0.90
10089, 'PORT ORCHARD 1 2', 138.00, 1, 1, 1, 1, 1.0293, -39.3937, 1.10, 0.90, 1.10, 0.90
10090, 'PORT ORCHARD 2 1', 138.00, 1, 1, 1, 1, 1.0239, -39.4454, 1.10, 0.90, 1.10, 0.90
10091, 'RIDGEFIELD 1', 138.00, 1, 1, 1, 1, 1.0257, -33.7167, 1.10, 0.90, 1.10, 0.90
10092, 'VANCOUVER 2 1', 138.00, 1, 1, 1, 1, 1.0252, -34.9677, 1.10, 0.90, 1.10, 0.90
10093, 'VANCOUVER 3 1', 138.00, 1, 1, 1, 1, 1.0242, -35.7040, 1.10, 0.90, 1.10, 0.90
10094, 'STEILACOOM 1', 138.00, 1, 1, 1, 1, 1.0245, -38.3680, 1.10, 0.90, 1.10, 0.90
10095, 'STEILACOOM 2', 138.00, 1, 1, 1, 1, 1.0246, -38.3581, 1.10, 0.90, 1.10, 0.90
10096, 'STEILACOOM 3', 138.00, 1, 1, 1, 1, 1.0245, -38.3779, 1.10, 0.90, 1.10, 0.90
10097, 'WOODLAND 1 1', 138.00, 1, 1, 1, 1, 1.0267, -34.2301, 1.10, 0.90, 1.10, 0.90
10098, 'DUPONT 1', 138.00, 1, 1, 1, 1, 1.0217, -35.3097, 1.10, 0.90, 1.10, 0.90
10099, 'DUPONT 2', 138.00, 1, 1, 1, 1, 1.0218, -35.2982, 1.10, 0.90, 1.10, 0.90
10100, 'VANCOUVER 4 1', 138.00, 1, 1, 1, 1, 1.0339, -35.5409, 1.10, 0.90, 1.10, 0.90
10101, 'VANCOUVER 4 2', 138.00, 1, 1, 1, 1, 1.0341, -35.5228, 1.10, 0.90, 1.10, 0.90
10102, 'VANCOUVER 4 3', 138.00, 1, 1, 1, 1, 1.0337, -35.5607, 1.10, 0.90, 1.10, 0.90
10103, 'VANCOUVER 5 1', 138.00, 1, 1, 1, 1, 1.0284, -35.4225, 1.10, 0.90, 1.10, 0.90
10104, 'VANCOUVER 5 2', 138.00, 1, 1, 1, 1, 1.0281, -35.4524, 1.10, 0.90, 1.10, 0.90
10105, 'VANCOUVER 5 3', 138.00, 1, 1, 1, 1, 1.0287, -35.3898, 1.10, 0.90, 1.10, 0.90
10106, 'ANACORTES 1 1', 138.00, 1, 1, 1, 1, 1.0192, -39.7765, 1.10, 0.90, 1.10, 0.90
10107, 'COUPEVILLE 1', 138.00, 1, 1, 1, 1, 1.0246, -37.6485, 1.10, 0.90, 1.10, 0.90
10108, 'COUPEVILLE 2', 138.00, 1, 1, 1, 1, 1.0247, -37.6316, 1.10, 0.90, 1.10, 0.90
10109, 'COUPEVILLE 3', 138.00, 1, 1, 1, 1, 1.0246, -37.6485, 1.10, 0.90, 1.10, 0.90
10110, 'ONALASKA 1', 138.00, 1, 1, 1, 1, 1.0312, -33.8164, 1.10, 0.90, 1.10, 0.90
10111, 'ONALASKA 2', 138.00, 1, 1, 1, 1, 1.0312, -33.8096, 1.10, 0.90, 1.10, 0.90
10112, 'RAINIER 1 1', 138.00, 1, 1, 1, 1, 1.0278, -34.4609, 1.10, 0.90, 1.10, 0.90
10113, 'BREMERTON 3 1', 138.00, 1, 1, 1, 1, 1.0260, -38.9913, 1.10, 0.90, 1.10, 0.90
10114, 'BREMERTON 3 2', 138.00, 1, 1, 1, 1, 1.0257, -39.0086, 1.10, 0.90, 1.10, 0.90
10115, 'BREMERTON 4 1', 138.00, 1, 1, 1, 1, 1.0252, -38.9612, 1.10, 0.90, 1.10, 0.90
10116, 'OAK HARBOR 1 1', 138.00, 1, 1, 1, 1, 1.0362, -33.8123, 1.10, 0.90, 1.10, 0.90
10117, 'OAK HARBOR 2 1', 345.00, 1, 1, 1, 1, 1.0371, -29.9740, 1.10, 0.90, 1.10, 0.90
10118, 'OAK HARBOR 2 2', 138.00, 1, 1, 1, 1, 1.0361, -33.8389, 1.10, 0.90, 1.10, 0.90
10119, 'OAK HARBOR 2 3', 13.80, 1, 1, 1, 1, 1.0362, -34.1973, 1.10, 0.90, 1.10, 0.90
10120, 'OAK HARBOR 2 4', 1.00, 1, 1, 1, 1, 1.0362, -34.1973, 1.10, 0.90, 1.10, 0.90
10121, 'POULSBO 1 1', 138.00, 1, 1, 1, 1, 1.0178, -38.9742, 1.10, 0.90, 1.10, 0.90
10122, 'POULSBO 1 2', 138.00, 1, 1, 1, 1, 1.0175, -38.9940, 1.10, 0.90, 1.10, 0.90
10123, 'POULSBO 2 1', 138.00, 1, 1, 1, 1, 1.0187, -38.7948, 1.10, 0.90, 1.10, 0.90
10124, 'POULSBO 2 2', 138.00, 1, 1, 1, 1, 1.0189, -38.7730, 1.10, 0.90, 1.10, 0.90
10125, 'POULSBO 2 3', 138.00, 1, 1, 1, 1, 1.0186, -38.8162, 1.10, 0.90, 1.10, 0.90
10126, 'POULSBO 2 4', 138.00, 1, 1, 1, 1, 1.0187, -38.7948, 1.10, 0.90, 1.10, 0.90
10127, 'BREMERTON 5 1', 345.00, 1, 1, 1, 1, 1.0194, -34.7855, 1.10, 0.90, 1.10, 0.90
10128, 'BREMERTON 5 2', 138.00, 1, 1, 1, 1, 1.0349, -38.6783, 1.10, 0.90, 1.10, 0.90
10129, 'VANCOUVER 6 1', 138.00, 1, 1, 1, 1, 1.0347, -35.3483, 1.10, 0.90, 1.10, 0.90
10130, 'VANCOUVER 7 1', 138.00, 1, 1, 1, 1, 1.0212, -35.0845, 1.10, 0.90, 1.10, 0.90
10131, 'VANCOUVER 8 1', 138.00, 1, 1, 1, 1, 1.0288, -35.3584, 1.10, 0.90, 1.10, 0.90
10132, 'VANCOUVER 8 2', 138.00, 1, 1, 1, 1, 1.0285, -35.3828, 1.10, 0.90, 1.10, 0.90
10133, 'GIG HARBOR 2 1', 138.00, 1, 1, 1, 1, 1.0243, -38.3188, 1.10, 0.90, 1.10, 0.90
10134, 'GIG HARBOR 2 2', 138.00, 1, 1, 1, 1, 1.0240, -38.3575, 1.10, 0.90, 1.10, 0.90
10135, 'FERNDALE 1 1', 138.00, 1, 1, 1, 1, 1.0312, -37.9299, 1.10, 0.90, 1.10, 0.90
10136, 'FERNDALE 1 2', 138.00, 1, 1, 1, 1, 1.0315, -37.8940, 1.10, 0.90, 1.10, 0.90
10137, 'LA CENTER 1', 138.00, 1, 1, 1, 1, 1.0259, -34.0686, 1.10, 0.90, 1.10, 0.90
10138, 'GIG HARBOR 3 1', 138.00, 1, 1, 1, 1, 1.0245, -39.4762, 1.10, 0.90, 1.10, 0.90
10139, 'TACOMA 1 1', 138.00, 1, 1, 1, 1, 1.0595, -36.3694, 1.10, 0.90, 1.10, 0.90
10140, 'PORT ORCHARD 3 1', 138.00, 1, 1, 1, 1, 1.0206, -38.9991, 1.10, 0.90, 1.10, 0.90
10141, 'PORT ORCHARD 3 2', 138.00, 1, 1, 1, 1, 1.0203, -39.0226, 1.10, 0.90, 1.10, 0.90
10142, 'PORT ORCHARD 4 1', 138.00, 1, 1, 1, 1, 1.0175, -39.2670, 1.10, 0.90, 1.10, 0.90
10143, 'PORT ORCHARD 4 2', 138.00, 1, 1, 1, 1, 1.0176, -39.2413, 1.10, 0.90, 1.10, 0.90
10144, 'PORT ORCHARD 4 3', 138.00, 1, 1, 1, 1, 1.0175, -39.2670, 1.10, 0.90, 1.10, 0.90
10145, 'VANCOUVER 9 1', 138.00, 1, 1, 1, 1, 1.0192, -34.5093, 1.10, 0.90, 1.10, 0.90
10146, 'VANCOUVER 10 1', 138.00, 1, 1, 1, 1, 1.0198, -35.0158, 1.10, 0.90, 1.10, 0.90
10147, 'VANCOUVER 10 2', 138.00, 1, 1, 1, 1, 1.0200, -34.9933, 1.10, 0.90, 1.10, 0.90
10148, 'VANCOUVER 11 1', 138.00, 1, 1, 1, 1, 1.0261, -35.3927, 1.10, 0.90, 1.10, 0.90
10149, 'OLALLA 1', 138.00, 1, 1, 1, 1, 1.0254, -39.5817, 1.10, 0.90, 1.10, 0.90
10150, 'OLALLA 2', 18.00, 1, 1, 1, 1, 1.0168, -40.4008, 1.10, 0.90, 1.10, 0.90
10151, 'OLALLA 3', 18.00, 1, 1, 1, 1, 1.0218, -40.7279, 1.10, 0.90, 1.10, 0.90
10152, 'OLALLA 4', 1.00, 1, 1, 1, 1, 1.0245, -39.7290, 1.10, 0.90, 1.10, 0.90
10153, 'UNIVERSITY PLACE 1', 138.00, 1, 1, 1, 1, 1.0241, -35.5216, 1.10, 0.90, 1.10, 0.90
10154, 'LAKEWOOD 1 1', 138.00, 1, 1, 1, 1, 1.0580, -36.5102, 1.10, 0.90, 1.10, 0.90
10155, 'LAKEWOOD 2 1', 138.00, 1, 1, 1, 1, 1.0221, -35.4798, 1.10, 0.90, 1.10, 0.90
10156, 'LAKEWOOD 2 2', 138.00, 1, 1, 1, 1, 1.0220, -35.4991, 1.10, 0.90, 1.10, 0.90
10157, 'TACOMA 2 1', 138.00, 1, 1, 1, 1, 1.0366, -38.6917, 1.10, 0.90, 1.10, 0.90
10158, 'TACOMA 2 2', 138.00, 1, 1, 1, 1, 1.0358, -38.6628, 1.10, 0.90, 1.10, 0.90
10159, 'TACOMA 3 1', 138.00, 1, 1, 1, 1, 1.0291, -38.6222, 1.10, 0.90, 1.10, 0.90
10160, 'BAINBRIDGE ISLAND 1', 138.00, 1, 1, 1, 1, 1.0144, -39.1310, 1.10, 0.90, 1.10, 0.90
10161, 'KINGSTON 1', 138.00, 1, 1, 1, 1, 1.0221, -41.4644, 1.10, 0.90, 1.10, 0.90
10162, 'KINGSTON 2', 138.00, 1, 1, 1, 1, 1.0220, -41.4795, 1.10, 0.90, 1.10, 0.90
10163, 'KINGSTON 3', 138.00, 1, 1, 1, 1, 1.0222, -41.4501, 1.10, 0.90, 1.10, 0.90
10164, 'ROY 1 1', 138.00, 1, 1, 1, 1, 1.0238, -35.6183, 1.10, 0.90, 1.10, 0.90
10165, 'TACOMA 4 1', 138.00, 1, 1, 1, 1, 1.0164, -39.7738, 1.10, 0.90, 1.10, 0.90
10166, 'TACOMA 4 2', 138.00, 1, 1, 1, 1, 1.0162, -39.8038, 1.10, 0.90, 1.10, 0.90
10167, 'VANCOUVER 12 1', 138.00, 1, 1, 1, 1, 1.0382, -35.1035, 1.10, 0.90, 1.10, 0.90
10168, 'VANCOUVER 13 1', 138.00, 1, 1, 1, 1, 1.0317, -35.3116, 1.10, 0.90, 1.10, 0.90
10169, 'LAKEWOOD 3 1', 138.00, 1, 1, 1, 1, 1.0259, -35.7331, 1.10, 0.90, 1.10, 0.90
10170, 'LAKEWOOD 3 2', 138.00, 1, 1, 1, 1, 1.0258, -35.7412, 1.10, 0.90, 1.10, 0.90
10171, 'TACOMA 5 1', 138.00, 1, 1, 1, 1, 1.0190, -38.6136, 1.10, 0.90, 1.10, 0.90
10172, 'BATTLE GROUND 1 1', 138.00, 1, 1, 1, 1, 1.0228, -34.0458, 1.10, 0.90, 1.10, 0.90
10173, 'BATTLE GROUND 1 2', 138.00, 1, 1, 1, 1, 1.0230, -34.0214, 1.10, 0.90, 1.10, 0.90
10174, 'BATTLE GROUND 1 3', 138.00, 1, 1, 1, 1, 1.0226, -34.0718, 1.10, 0.90, 1.10, 0.90
10175, 'BATTLE GROUND 2 1', 138.00, 1, 1, 1, 1, 1.0243, -33.4046, 1.10, 0.90, 1.10, 0.90
10176, 'BATTLE GROUND 2 2', 138.00, 1, 1, 1, 1, 1.0246, -33.3800, 1.10, 0.90, 1.10, 0.90
10177, 'VANCOUVER 14 1', 138.00, 1, 1, 1, 1, 1.0388, -34.8738, 1.10, 0.90, 1.10, 0.90
10178, 'VANCOUVER 15 1', 138.00, 1, 1, 1, 1, 1.0233, -35.1877, 1.10, 0.90, 1.10, 0.90
10179, 'BELLINGHAM 1 1', 138.00, 1, 1, 1, 1, 1.0310, -38.0779, 1.10, 0.90, 1.10, 0.90
10180, 'BELLINGHAM 2 1', 138.00, 1, 1, 1, 1, 1.0310, -37.8855, 1.10, 0.90, 1.10, 0.90
10181, 'BELLINGHAM 2 2', 138.00, 1, 1, 1, 1, 1.0312, -37.8551, 1.10, 0.90, 1.10, 0.90
10182, 'BELLINGHAM 2 3', 138.00, 1, 1, 1, 1, 1.0308, -37.9185, 1.10, 0.90, 1.10, 0.90
10183, 'LAKEWOOD 4 1', 138.00, 1, 1, 1, 1, 1.0215, -38.5442, 1.10, 0.90, 1.10, 0.90
10184, 'LAKEWOOD 5 1', 138.00, 1, 1, 1, 1, 1.0392, -38.3506, 1.10, 0.90, 1.10, 0.90
10185, 'LAKEWOOD 5 2', 138.00, 1, 1, 1, 1, 1.0387, -38.3876, 1.10, 0.90, 1.10, 0.90
10186, 'CAMANO ISLAND 1', 138.00, 1, 1, 1, 1, 1.0296, -35.4926, 1.10, 0.90, 1.10, 0.90
10187, 'CAMANO ISLAND 2', 138.00, 1, 1, 1, 1, 1.0294, -35.5134, 1.10, 0.90, 1.10, 0.90
10188, 'YELM 1', 138.00, 1, 1, 1, 1, 1.0307, -33.1624, 1.10, 0.90, 1.10, 0.90
10189, 'YELM 2', 138.00, 1, 1, 1, 1, 1.0311, -33.1320, 1.10, 0.90, 1.10, 0.90
10190, 'VANCOUVER 16 1', 138.00, 1, 1, 1, 1, 1.0200, -34.3061, 1.10, 0.90, 1.10, 0.90
10191, 'VANCOUVER 16 2', 138.00, 1, 1, 1, 1, 1.0197, -34.3443, 1.10, 0.90, 1.10, 0.90
10192, 'VANCOUVER 17 1', 345.00, 1, 1, 1, 1, 1.0098, -32.0089, 1.10, 0.90, 1.10, 0.90
10193, 'VANCOUVER 17 2', 138.00, 1, 1, 1, 1, 1.0189, -34.6722, 1.10, 0.90, 1.10, 0.90
10194, 'VANCOUVER 17 3', 24.00, 1, 1, 1, 1, 1.0189, -34.6713, 1.10, 0.90, 1.10, 0.90
10195, 'VANCOUVER 17 4', 1.00, 1, 1, 1, 1, 1.0189, -34.6713, 1.10, 0.90, 1.10, 0.90
10196, 'TACOMA 6 1', 345.00, 1, 1, 1, 1, 1.0365, -32.1659, 1.10, 0.90, 1.10, 0.90
10197, 'TACOMA 6 2', 138.00, 1, 1, 1, 1, 1.0636, -35.9973, 1.10, 0.90, 1.10, 0.90
10198, 'TACOMA 6 3', 345.00, 1, 1, 1, 1, 1.0361, -32.1928, 1.10, 0.90, 1.10, 0.90
10199, 'VASHON 1', 138.00, 1, 1, 1, 1, 1.0178, -39.7881, 1.10, 0.90, 1.10, 0.90
10200, 'TACOMA 7 1', 138.00, 1, 1, 1, 1, 1.0221, -38.8491, 1.10, 0.90, 1.10, 0.90
10201, 'LYNDEN 1', 138.00, 1, 1, 1, 1, 1.0285, -37.2856, 1.10, 0.90, 1.10, 0.90
10202, 'BRUSH PRAIRIE 1', 138.00, 1, 1, 1, 1, 1.0262, -35.4737, 1.10, 0.90, 1.10, 0.90
10203, 'LANGLEY 1', 138.00, 1, 1, 1, 1, 1.0233, -39.6885, 1.10, 0.90, 1.10, 0.90
10204, 'LANGLEY 2', 138.00, 1, 1, 1, 1, 1.0232, -39.6964, 1.10, 0.90, 1.10, 0.90
10205, 'TACOMA 8 1', 138.00, 1, 1, 1, 1, 1.0219, -37.0023, 1.10, 0.90, 1.10, 0.90
10206, 'TACOMA 8 2', 138.00, 1, 1, 1, 1, 1.0217, -37.0250, 1.10, 0.90, 1.10, 0.90
10207, 'TACOMA 9 1', 138.00, 1, 1, 1, 1, 1.0253, -38.9526, 1.10, 0.90, 1.10, 0.90
10208, 'TACOMA 10 1', 138.00, 1, 1, 1, 1, 1.0279, -38.5915, 1.10, 0.90, 1.10, 0.90
10209, 'TACOMA 11 1', 138.00, 1, 1, 1, 1, 1.0183, -37.1876, 1.10, 0.90, 1.10, 0.90
10210, 'BELLINGHAM 3 1', 138.00, 1, 1, 1, 1, 1.0293, -38.1692, 1.10, 0.90, 1.10, 0.90
10211, 'BELLINGHAM 4 1', 138.00, 1, 1, 1, 1, 1.0284, -38.0483, 1.10, 0.90, 1.10, 0.90
10212, 'BELLINGHAM 4 2', 138.00, 1, 1, 1, 1, 1.0287, -38.0182, 1.10, 0.90, 1.10, 0.90
10213, 'MOSSYROCK 1', 138.00, 1, 1, 1, 1, 1.0391, -31.6506, 1.10, 0.90, 1.10, 0.90
10214, 'MOSSYROCK 2', 138.00, 1, 1, 1, 1, 1.0390, -31.6574, 1.10, 0.90, 1.10, 0.90
10215, 'BELLINGHAM 5 1', 138.00, 1, 1, 1, 1, 1.0316, -37.4823, 1.10, 0.90, 1.10, 0.90
10216, 'BELLINGHAM 6 1', 138.00, 1, 1, 1, 1, 1.0309, -37.6363, 1.10, 0.90, 1.10, 0.90
10217, 'BELLINGHAM 6 2', 138.00, 1, 1, 1, 1, 1.0308, -37.6576, 1.10, 0.90, 1.10, 0.90
10218, 'CLINTON 1 1', 138.00, 1, 1, 1, 1, 1.0304, -40.8754, 1.10, 0.90, 1.10, 0.90
10219, 'TACOMA 12 1', 138.00, 1, 1, 1, 1, 1.0297, -38.9180, 1.10, 0.90, 1.10, 0.90
10220, 'TACOMA 12 2', 138.00, 1, 1, 1, 1, 1.0299, -38.8956, 1.10, 0.90, 1.10, 0.90
10221, 'TACOMA 13 1', 138.00, 1, 1, 1, 1, 1.0280, -36.7200, 1.10, 0.90, 1.10, 0.90
10222, 'BOW 1', 138.00, 1, 1, 1, 1, 1.0318, -37.4622, 1.10, 0.90, 1.10, 0.90
10223, 'BOW 2', 138.00, 1, 1, 1, 1, 1.0318, -37.4670, 1.10, 0.90, 1.10, 0.90
10224, 'TACOMA 14 1', 138.00, 1, 1, 1, 1, 1.0252, -36.4584, 1.10, 0.90, 1.10, 0.90
10225, 'TACOMA 14 2', 138.00, 1, 1, 1, 1, 1.0249, -36.4762, 1.10, 0.90, 1.10, 0.90
10226, 'TACOMA 15 1', 138.00, 1, 1, 1, 1, 1.0210, -37.0297, 1.10, 0.90, 1.10, 0.90
10227, 'SEATTLE 1 1', 138.00, 1, 1, 1, 1, 1.0238, -40.5911, 1.10, 0.90, 1.10, 0.90
10228, 'SEATTLE 2 1', 138.00, 1, 1, 1, 1, 1.0329, -38.1022, 1.10, 0.90, 1.10, 0.90
10229, 'SEATTLE 3 1', 138.00, 1, 1, 1, 1, 1.0325, -38.7575, 1.10, 0.90, 1.10, 0.90
10230, 'SPANAWAY 1 1', 138.00, 1, 1, 1, 1, 1.0322, -36.2745, 1.10, 0.90, 1.10, 0.90
10231, 'SPANAWAY 2 1', 138.00, 1, 1, 1, 1, 1.0305, -36.8411, 1.10, 0.90, 1.10, 0.90
10232, 'TACOMA 16 1', 138.00, 1, 1, 1, 1, 1.0167, -38.0331, 1.10, 0.90, 1.10, 0.90
10233, 'SEATTLE 4 1', 138.00, 1, 1, 1, 1, 1.0270, -38.0520, 1.10, 0.90, 1.10, 0.90
10234, 'SEATTLE 4 2', 138.00, 1, 1, 1, 1, 1.0268, -38.0746, 1.10, 0.90, 1.10, 0.90
10235, 'SEATTLE 5 1', 138.00, 1, 1, 1, 1, 1.0242, -41.1961, 1.10, 0.90, 1.10, 0.90
10236, 'SEATTLE 5 2', 138.00, 1, 1, 1, 1, 1.0240, -41.2175, 1.10, 0.90, 1.10, 0.90
10237, 'CAMAS 1 1', 138.00, 1, 1, 1, 1, 1.0255, -35.6826, 1.10, 0.90, 1.10, 0.90
10238, 'CAMAS 2 1', 138.00, 1, 1, 1, 1, 1.0253, -35.6254, 1.10, 0.90, 1.10, 0.90
10239, 'SEATTLE 6 1', 138.00, 1, 1, 1, 1, 1.0346, -38.5308, 1.10, 0.90, 1.10, 0.90
10240, 'SEATTLE 6 2', 138.00, 1, 1, 1, 1, 1.0349, -38.5032, 1.10, 0.90, 1.10, 0.90
10241, 'SEATTLE 7 1', 138.00, 1, 1, 1, 1, 1.0358, -37.7075, 1.10, 0.90, 1.10, 0.90
10242, 'SEATTLE 8 1', 138.00, 1, 1, 1, 1, 1.0315, -38.0279, 1.10, 0.90, 1.10, 0.90
10243, 'SEATTLE 8 2', 138.00, 1, 1, 1, 1, 1.0314, -38.0533, 1.10, 0.90, 1.10, 0.90
10244, 'MOUNT VERNON 1 1', 138.00, 1, 1, 1, 1, 1.0496, -32.9050, 1.10, 0.90, 1.10, 0.90
10245, 'MOUNT VERNON 2 1', 138.00, 1, 1, 1, 1, 1.0505, -32.8722, 1.10, 0.90, 1.10, 0.90
10246, 'MOUNT VERNON 2 2', 138.00, 1, 1, 1, 1, 1.0507, -32.8517, 1.10, 0.90, 1.10, 0.90
10247, 'TACOMA 17 1', 138.00, 1, 1, 1, 1, 1.0209, -36.9284, 1.10, 0.90, 1.10, 0.90
10248, 'EDMONDS 1 1', 138.00, 1, 1, 1, 1, 1.0235, -40.6842, 1.10, 0.90, 1.10, 0.90
10249, 'SEATTLE 9 1', 138.00, 1, 1, 1, 1, 1.0225, -38.1925, 1.10, 0.90, 1.10, 0.90
10250, 'FEDERAL WAY 1 1', 138.00, 1, 1, 1, 1, 1.0174, -39.0625, 1.10, 0.90, 1.10, 0.90
10251, 'FEDERAL WAY 2 1', 138.00, 1, 1, 1, 1, 1.0217, -38.5933, 1.10, 0.90, 1.10, 0.90
10252, 'SEATTLE 10 1', 138.00, 1, 1, 1, 1, 1.0184, -38.5640, 1.10, 0.90, 1.10, 0.90
10253, 'SEATTLE 10 2', 138.00, 1, 1, 1, 1, 1.0186, -38.5470, 1.10, 0.90, 1.10, 0.90
10254, 'SEATTLE 11 1', 138.00, 1, 1, 1, 1, 1.0172, -38.9907, 1.10, 0.90, 1.10, 0.90
10255, 'SEATTLE 11 2', 138.00, 1, 1, 1, 1, 1.0175, -38.9733, 1.10, 0.90, 1.10, 0.90
10256, 'TACOMA 18 1', 138.00, 1, 1, 1, 1, 1.0188, -38.7082, 1.10, 0.90, 1.10, 0.90
10257, 'TACOMA 18 2', 138.00, 1, 1, 1, 1, 1.0186, -38.7217, 1.10, 0.90, 1.10, 0.90
10258, 'TACOMA 18 3', 138.00, 1, 1, 1, 1, 1.0190, -38.6945, 1.10, 0.90, 1.10, 0.90
10259, 'SEATTLE 12 1', 138.00, 1, 1, 1, 1, 1.0164, -38.5649, 1.10, 0.90, 1.10, 0.90
10260, 'SEATTLE 13 1', 138.00, 1, 1, 1, 1, 1.0342, -37.6649, 1.10, 0.90, 1.10, 0.90
10261, 'SEATTLE 14 1', 138.00, 1, 1, 1, 1, 1.0192, -38.4685, 1.10, 0.90, 1.10, 0.90
10262, 'SEATTLE 14 2', 138.00, 1, 1, 1, 1, 1.0189, -38.5017, 1.10, 0.90, 1.10, 0.90
10263, 'BURLINGTON 1 1', 138.00, 1, 1, 1, 1, 1.0558, -32.1838, 1.10, 0.90, 1.10, 0.90
10264, 'SEATTLE 15 1', 138.00, 1, 1, 1, 1, 1.0276, -38.2680, 1.10, 0.90, 1.10, 0.90
10265, 'SEATTLE 15 2', 138.00, 1, 1, 1, 1, 1.0278, -38.2384, 1.10, 0.90, 1.10, 0.90
10266, 'SEATTLE 15 3', 138.00, 1, 1, 1, 1, 1.0275, -38.2974, 1.10, 0.90, 1.10, 0.90
10267, 'YACOLT 1', 138.00, 1, 1, 1, 1, 1.0098, -34.3255, 1.10, 0.90, 1.10, 0.90
10268, 'SEATTLE 16 1', 138.00, 1, 1, 1, 1, 1.0189, -37.0271, 1.10, 0.90, 1.10, 0.90
10269, 'SEATTLE 16 2', 138.00, 1, 1, 1, 1, 1.0187, -37.0589, 1.10, 0.90, 1.10, 0.90
10270, 'SEATTLE 17 1', 138.00, 1, 1, 1, 1, 1.0304, -37.7156, 1.10, 0.90, 1.10, 0.90
10271, 'SEATTLE 17 2', 138.00, 1, 1, 1, 1, 1.0302, -37.7450, 1.10, 0.90, 1.10, 0.90
10272, 'SEATTLE 18 1', 138.00, 1, 1, 1, 1, 1.0177, -38.4934, 1.10, 0.90, 1.10, 0.90
10273, 'SEATTLE 19 1', 138.00, 1, 1, 1, 1, 1.0182, -37.9789, 1.10, 0.90, 1.10, 0.90
10274, 'SEATTLE 20 1', 138.00, 1, 1, 1, 1, 1.0301, -37.7642, 1.10, 0.90, 1.10, 0.90
10275, 'EDMONDS 2 1', 345.00, 1, 1, 1, 1, 1.0180, -33.4707, 1.10, 0.90, 1.10, 0.90
10276, 'EDMONDS 2 2', 138.00, 1, 1, 1, 1, 1.0209, -36.1160, 1.10, 0.90, 1.10, 0.90
10277, 'EDMONDS 3 1', 138.00, 1, 1, 1, 1, 1.0159, -37.2763, 1.10, 0.90, 1.10, 0.90
10278, 'EVERSON 1', 138.00, 1, 1, 1, 1, 1.0263, -36.9846, 1.10, 0.90, 1.10, 0.90
10279, 'EVERSON 2', 138.00, 1, 1, 1, 1, 1.0261, -37.0004, 1.10, 0.90, 1.10, 0.90
10280, 'EVERSON 3', 138.00, 1, 1, 1, 1, 1.0264, -36.9674, 1.10, 0.90, 1.10, 0.90
10281, 'EVERSON 4', 138.00, 1, 1, 1, 1, 1.0263, -36.9846, 1.10, 0.90, 1.10, 0.90
10282, 'EVERSON 5', 138.00, 1, 1, 1, 1, 1.0263, -36.9846, 1.10, 0.90, 1.10, 0.90
10283, 'SEATTLE 21 1', 138.00, 1, 1, 1, 1, 1.0349, -38.5070, 1.10, 0.90, 1.10, 0.90
10284, 'SEATTLE 21 2', 138.00, 1, 1, 1, 1, 1.0350, -38.4868, 1.10, 0.90, 1.10, 0.90
10285, 'SEATTLE 22 1', 138.00, 1, 1, 1, 1, 1.0184, -38.5377, 1.10, 0.90, 1.10, 0.90
10286, 'PUYALLUP 1 1', 138.00, 1, 1, 1, 1, 1.0297, -36.5560, 1.10, 0.90, 1.10, 0.90
10287, 'PUYALLUP 2 1', 138.00, 1, 1, 1, 1, 1.0199, -37.9621, 1.10, 0.90, 1.10, 0.90
10288, 'PUYALLUP 2 2', 138.00, 1, 1, 1, 1, 1.0196, -37.9926, 1.10, 0.90, 1.10, 0.90
10289, 'PUYALLUP 3 1', 138.00, 1, 1, 1, 1, 1.0252, -36.5078, 1.10, 0.90, 1.10, 0.90
10290, 'PUYALLUP 4 1', 138.00, 1, 1, 1, 1, 1.0211, -37.1155, 1.10, 0.90, 1.10, 0.90
10291, 'SEATTLE 23 1', 138.00, 1, 1, 1, 1, 1.0203, -38.1645, 1.10, 0.90, 1.10, 0.90
10292, 'SEATTLE 23 2', 138.00, 1, 1, 1, 1, 1.0201, -38.1964, 1.10, 0.90, 1.10, 0.90
10293, 'FEDERAL WAY 3 1', 138.00, 1, 1, 1, 1, 1.0117, -38.4228, 1.10, 0.90, 1.10, 0.90
10294, 'FEDERAL WAY 4 1', 138.00, 1, 1, 1, 1, 1.0213, -37.3769, 1.10, 0.90, 1.10, 0.90
10295, 'FEDERAL WAY 4 2', 138.00, 1, 1, 1, 1, 1.0215, -37.3491, 1.10, 0.90, 1.10, 0.90
10296, 'SEATTLE 24 1', 138.00, 1, 1, 1, 1, 1.0163, -38.3562, 1.10, 0.90, 1.10, 0.90
10297, 'SEATTLE 24 2', 138.00, 1, 1, 1, 1, 1.0165, -38.3244, 1.10, 0.90, 1.10, 0.90
10298, 'SEATTLE 25 1', 138.00, 1, 1, 1, 1, 1.0157, -38.3137, 1.10, 0.90, 1.10, 0.90
10299, 'SEATTLE 25 2', 138.00, 1, 1, 1, 1, 1.0152, -38.3328, 1.10, 0.90, 1.10, 0.90
10300, 'STANWOOD 1', 138.00, 1, 1, 1, 1, 1.0267, -34.8580, 1.10, 0.90, 1.10, 0.90
10301, 'STANWOOD 2', 138.00, 1, 1, 1, 1, 1.0265, -34.8870, 1.10, 0.90, 1.10, 0.90
10302, 'MOUNTLAKE TERRACE 1', 138.00, 1, 1, 1, 1, 1.0250, -36.9896, 1.10, 0.90, 1.10, 0.90
10303, 'MOUNTLAKE TERRACE 2', 138.00, 1, 1, 1, 1, 1.0247, -36.9559, 1.10, 0.90, 1.10, 0.90
10304, 'MOUNTLAKE TERRACE 3', 138.00, 1, 1, 1, 1, 1.0250, -36.9896, 1.10, 0.90, 1.10, 0.90
10305, 'MOUNTLAKE TERRACE 4', 138.00, 1, 1, 1, 1, 1.0246, -37.0177, 1.10, 0.90, 1.10, 0.90
10306, 'SEATTLE 26 1', 138.00, 1, 1, 1, 1, 1.0372, -38.1594, 1.10, 0.90, 1.10, 0.90
10307, 'MUKILTEO 1', 138.00, 1, 1, 1, 1, 1.0212, -36.5420, 1.10, 0.90, 1.10, 0.90
10308, 'MUKILTEO 2', 138.00, 1, 1, 1, 1, 1.0216, -36.5167, 1.10, 0.90, 1.10, 0.90
10309, 'SEATTLE 27 1', 138.00, 1, 1, 1, 1, 1.0290, -37.8702, 1.10, 0.90, 1.10, 0.90
10310, 'SEATTLE 28 1', 138.00, 1, 1, 1, 1, 1.0270, -37.1014, 1.10, 0.90, 1.10, 0.90
10311, 'SEATTLE 29 1', 138.00, 1, 1, 1, 1, 1.0148, -38.9199, 1.10, 0.90, 1.10, 0.90
10312, 'SEATTLE 29 2', 138.00, 1, 1, 1, 1, 1.0145, -38.9433, 1.10, 0.90, 1.10, 0.90
10313, 'SEATTLE 29 3', 138.00, 1, 1, 1, 1, 1.0151, -38.8998, 1.10, 0.90, 1.10, 0.90
10314, 'SEATTLE 30 1', 138.00, 1, 1, 1, 1, 1.0260, -38.9012, 1.10, 0.90, 1.10, 0.90
10315, 'SEATTLE 31 1', 138.00, 1, 1, 1, 1, 1.0241, -38.1036, 1.10, 0.90, 1.10, 0.90
10316, 'SEATTLE 32 1', 138.00, 1, 1, 1, 1, 1.0426, -37.6220, 1.10, 0.90, 1.10, 0.90
10317, 'SEATTLE 32 2', 138.00, 1, 1, 1, 1, 1.0428, -37.5967, 1.10, 0.90, 1.10, 0.90
10318, 'SEATTLE 33 1', 138.00, 1, 1, 1, 1, 1.0323, -37.4562, 1.10, 0.90, 1.10, 0.90
10319, 'SEATTLE 34 1', 138.00, 1, 1, 1, 1, 1.0298, -38.2427, 1.10, 0.90, 1.10, 0.90
10320, 'SEATTLE 34 2', 138.00, 1, 1, 1, 1, 1.0296, -38.2621, 1.10, 0.90, 1.10, 0.90
10321, 'SEATTLE 35 1', 138.00, 1, 1, 1, 1, 1.0245, -38.2159, 1.10, 0.90, 1.10, 0.90
10322, 'SEATTLE 36 1', 138.00, 1, 1, 1, 1, 1.0385, -37.6572, 1.10, 0.90, 1.10, 0.90
10323, 'SEATTLE 37 1', 138.00, 1, 1, 1, 1, 1.0271, -38.1351, 1.10, 0.90, 1.10, 0.90
10324, 'LYNNWOOD 1 1', 138.00, 1, 1, 1, 1, 1.0154, -37.9394, 1.10, 0.90, 1.10, 0.90
10325, 'LYNNWOOD 1 2', 138.00, 1, 1, 1, 1, 1.0155, -37.9200, 1.10, 0.90, 1.10, 0.90
10326, 'LYNNWOOD 2 1', 138.00, 1, 1, 1, 1, 1.0202, -37.1044, 1.10, 0.90, 1.10, 0.90
10327, 'SEATTLE 38 1', 138.00, 1, 1, 1, 1, 1.0286, -38.0891, 1.10, 0.90, 1.10, 0.90
10328, 'SEATTLE 38 2', 138.00, 1, 1, 1, 1, 1.0284, -38.1220, 1.10, 0.90, 1.10, 0.90
10329, 'SEATTLE 38 3', 138.00, 1, 1, 1, 1, 1.0288, -38.0575, 1.10, 0.90, 1.10, 0.90
10330, 'SEATTLE 39 1', 345.00, 1, 1, 1, 1, 1.0072, -34.5790, 1.10, 0.90, 1.10, 0.90
10331, 'SEATTLE 39 2', 138.00, 1, 1, 1, 1, 1.0444, -37.4155, 1.10, 0.90, 1.10, 0.90
10332, 'SEATTLE 39 3', 345.00, 1, 1, 1, 1, 1.0069, -34.6109, 1.10, 0.90, 1.10, 0.90
10333, 'SEATTLE 40 1', 345.00, 1, 1, 1, 1, 1.0116, -34.0493, 1.10, 0.90, 1.10, 0.90
10334, 'SEATTLE 40 2', 138.00, 1, 1, 1, 1, 1.0179, -37.8379, 1.10, 0.90, 1.10, 0.90
10335, 'SEATTLE 40 3', 13.80, 1, 1, 1, 1, 1.0179, -37.8379, 1.10, 0.90, 1.10, 0.90
10336, 'SEATTLE 40 4', 13.80, 1, 1, 1, 1, 1.0179, -37.8379, 1.10, 0.90, 1.10, 0.90
10337, 'SEATTLE 40 5', 1.00, 1, 1, 1, 1, 1.0179, -37.8379, 1.10, 0.90, 1.10, 0.90
10338, 'SEATTLE 41 1', 138.00, 1, 1, 1, 1, 1.0290, -38.0915, 1.10, 0.90, 1.10, 0.90
10339, 'LYNNWOOD 3 1', 138.00, 1, 1, 1, 1, 1.0171, -37.5416, 1.10, 0.90, 1.10, 0.90
10340, 'LYNNWOOD 4 1', 138.00, 1, 1, 1, 1, 1.0187, -36.8491, 1.10, 0.90, 1.10, 0.90